<?xml version='1.0' encoding='utf-8'?>
<routes xmlns:xsi="http://www.w3.org/2001/XMLSchema-instance" xsi:noNamespaceSchemaLocation="http://sumo.dlr.de/xsd/routes_file.xsd">
    <vType id="electric_car" accel="0.8" decel="0.8" length="5" maxSpeed="13.89" emissionClass="Energy/unknown" lcSpeedGainRight="0" jmCrossingGap="20" sigma="0" minGap="1"/>
	    <param key="has.battery.device" value="true" />
		<param key="airDragCoefficient" value="0.35" />       
		<param key="constantPowerIntake" value="100" />       
		<param key="frontSurfaceArea" value="2.6" />          
		<param key="internalMomentOfInertia" value="0.01" />  
		<param key="maximumBatteryCapacity" value="64000" />
		<param key="maximumPower" value="150000" />           
		<param key="propulsionEfficiency" value=".98" />      
		<param key="radialDragCoefficient" value="0.1" />     
		<param key="recuperationEfficiency" value=".96" />    
		<param key="rollDragCoefficient" value="0.01" />      
		<param key="stoppingThreshold" value="0.1" />         
		<param key="vehicleMass" value="1830" />              
		
	

</routes>