<?xml version="1.0" encoding="UTF-8"?>

<!-- generated on 2024-08-26 12:13:43 by Eclipse SUMO netconvert Version 1.17.0
<configuration xmlns:xsi="http://www.w3.org/2001/XMLSchema-instance" xsi:noNamespaceSchemaLocation="http://sumo.dlr.de/xsd/netconvertConfiguration.xsd">

    <input>
        <sumo-net-file value="5GoIng_FZG.net.xml"/>
    </input>

    <output>
        <opendrive-output value="5GoIng.xodr"/>
    </output>

    <processing>
        <geometry.min-radius.fix.railways value="false"/>
        <geometry.max-grade.fix value="false"/>
        <offset.disable-normalization value="true"/>
        <lefthand value="0"/>
    </processing>

    <junctions>
        <no-turnarounds value="true"/>
        <junctions.corner-detail value="5"/>
        <junctions.limit-turn-speed value="5.50"/>
    </junctions>

    <pedestrian>
        <walkingareas value="0"/>
    </pedestrian>

</configuration>
-->

<OpenDRIVE>
    <header revMajor="1" revMinor="4" name="" version="1.00" date="Mon Aug 26 12:13:43 2024" north="637.41" south="0.00" east="648.27" west="0.00">
        <geoReference>
 <![CDATA[
 +proj=utm +zone=32 +ellps=WGS84 +datum=WGS84 +units=m +no_defs
]]>
        </geoReference>
        <offset x="-681869.64" y="-5402664.37" z="0.00" hdg="0"/>
    </header>
    <road name="" length="3.24562036" id="600" junction="-1">
        <link>
            <predecessor elementType="junction" elementId="1"/>
            <successor elementType="junction" elementId="2"/>
        </link>
        <type s="0" type="town"/>
        <planView>
            <geometry s="0.00000000" x="184.74579439" y="503.29054480" hdg="-0.01764523" length="3.24562036">
                <line/>
            </geometry>
        </planView>
        <elevationProfile>
            <elevation s="0" a="0.00" b="0" c="0" d="0"/>
        </elevationProfile>
        <lateralProfile/>
        <lanes>
            <laneSection s="0">
                <center>
                    <lane id="0" type="none" level="true">
                        <link/>
                        <roadMark sOffset="0" type="solid" weight="standard" color="standard" width="0.13"/>
                    </lane>
                </center>
                <right>
                    <lane id="-1" type="driving" level="true">
                        <link/>
                        <width sOffset="0" a="3.20" b="0" c="0" d="0"/>
                        <roadMark sOffset="0" type="solid" weight="standard" color="standard" width="0.13"/>
                        <speed sOffset="0" max="13.89"/>
                    </lane>
                 </right>
            </laneSection>
        </lanes>
        <objects/>
        <signals/>
    </road>
    <road name="" length="177.28659551" id="601" junction="-1">
        <link>
            <predecessor elementType="junction" elementId="3"/>
            <successor elementType="junction" elementId="1"/>
        </link>
        <type s="0" type="town"/>
        <planView>
            <geometry s="0.00000000" x="-0.00000000" y="506.89000000" hdg="-0.01715798" length="54.25400816">
                <line/>
            </geometry>
            <geometry s="54.25400816" x="54.24602227" y="505.95915634" hdg="-0.01715798" length="13.88987798">
                <paramPoly3 aU="0.00000000" bU="10.41738446" cU="10.41738446" dU="-6.94507702" aV="0.00000000" bV="0.00000000" cV="-0.09812695" dV="0.03270971" pRange="normalized"/>
            </geometry>
            <geometry s="68.14388615" x="68.13254731" y="505.65544133" hdg="-0.02657745" length="21.48249214">
                <line/>
            </geometry>
            <geometry s="89.62637828" x="89.60745269" y="505.08455867" hdg="-0.02657745" length="13.88990612">
                <paramPoly3 aU="0.00000000" bU="10.41741111" cU="10.41741111" dU="-6.94505926" aV="0.00000000" bV="-0.00000000" cV="0.08607088" dV="-0.02869078" pRange="normalized"/>
            </geometry>
            <geometry s="103.51628441" x="103.49383518" y="504.77280747" hdg="-0.01831528" length="73.77031110">
                <line/>
            </geometry>
        </planView>
        <elevationProfile>
            <elevation s="0" a="0.00" b="0" c="0" d="0"/>
        </elevationProfile>
        <lateralProfile/>
        <lanes>
            <laneSection s="0">
                <center>
                    <lane id="0" type="none" level="true">
                        <link/>
                        <roadMark sOffset="0" type="solid" weight="standard" color="standard" width="0.13"/>
                    </lane>
                </center>
                <right>
                    <lane id="-1" type="driving" level="true">
                        <link/>
                        <width sOffset="0" a="3.25" b="0" c="0" d="0"/>
                        <roadMark sOffset="0" type="solid" weight="standard" color="standard" width="0.13"/>
                        <speed sOffset="0" max="13.89"/>
                    </lane>
                 </right>
            </laneSection>
        </lanes>
        <objects/>
        <signals/>
    </road>
    <road name="" length="12.91359093" id="602" junction="-1">
        <link>
            <predecessor elementType="junction" elementId="4"/>
            <successor elementType="junction" elementId="5"/>
        </link>
        <type s="0" type="town"/>
        <planView>
            <geometry s="0.00000000" x="229.57237510" y="549.33253396" hdg="1.55703122" length="3.05341327">
                <line/>
            </geometry>
            <geometry s="3.05341327" x="229.61440434" y="552.38565795" hdg="1.55703122" length="9.66017766">
                <paramPoly3 aU="0.00000000" bU="7.23769992" cU="7.32558478" dU="-4.92679839" aV="0.00000000" bV="-0.00000000" cV="-0.18502745" dV="-0.33050752" pRange="normalized"/>
            </geometry>
            <geometry s="12.71359093" x="230.26253357" y="562.01413515" hdg="1.36778059" length="0.20000000">
                <line/>
            </geometry>
        </planView>
        <elevationProfile>
            <elevation s="0" a="0.00" b="0" c="0" d="0"/>
        </elevationProfile>
        <lateralProfile/>
        <lanes>
            <laneSection s="0">
                <center>
                    <lane id="0" type="none" level="true">
                        <link/>
                        <roadMark sOffset="0" type="solid" weight="standard" color="standard" width="0.13"/>
                    </lane>
                </center>
                <right>
                    <lane id="-1" type="driving" level="true">
                        <link/>
                        <width sOffset="0" a="3.75" b="0" c="0" d="0"/>
                        <roadMark sOffset="0" type="solid" weight="standard" color="standard" width="0.13"/>
                        <speed sOffset="0" max="13.89"/>
                    </lane>
                 </right>
            </laneSection>
        </lanes>
        <objects/>
        <signals/>
    </road>
    <road name="" length="51.33046948" id="603" junction="-1">
        <link>
            <predecessor elementType="junction" elementId="6"/>
        </link>
        <type s="0" type="town"/>
        <planView>
            <geometry s="0.00000000" x="235.75158448" y="579.27101501" hdg="1.11109088" length="34.27757198">
                <line/>
            </geometry>
            <geometry s="34.27757198" x="250.96000000" y="609.99000000" hdg="1.11109088" length="4.25144322">
                <paramPoly3 aU="0.00000000" bU="3.18374779" cU="3.23220839" dU="-2.18397332" aV="0.00000000" bV="0.00000000" cV="0.25514258" dV="0.07700349" pRange="normalized"/>
            </geometry>
            <geometry s="38.52901521" x="252.54000000" y="613.93000000" hdg="1.34608516" length="4.50013233">
                <paramPoly3 aU="0.00000000" bU="3.35470565" cU="3.57147336" dU="-2.50254964" aV="0.00000000" bV="-0.00000000" cV="0.46587965" dV="0.19646707" pRange="normalized"/>
            </geometry>
            <geometry s="43.02914753" x="252.88000000" y="618.39000000" hdg="1.81670725" length="3.96962482">
                <paramPoly3 aU="0.00000000" bU="4.86002175" cU="-1.29827760" dU="0.00000000" aV="-0.00000000" bV="0.00000000" cV="1.41551357" dV="0.00000000" pRange="normalized"/>
            </geometry>
            <geometry s="46.99877235" x="250.64000000" y="621.50000000" hdg="2.71305458" length="4.33169713">
                <line/>
            </geometry>
        </planView>
        <elevationProfile>
            <elevation s="0" a="0.00" b="0" c="0" d="0"/>
        </elevationProfile>
        <lateralProfile/>
        <lanes>
            <laneSection s="0">
                <center>
                    <lane id="0" type="none" level="true">
                        <link/>
                        <roadMark sOffset="0" type="solid" weight="standard" color="standard" width="0.13"/>
                    </lane>
                </center>
                <right>
                    <lane id="-1" type="driving" level="true">
                        <link/>
                        <width sOffset="0" a="3.75" b="0" c="0" d="0"/>
                        <roadMark sOffset="0" type="solid" weight="standard" color="standard" width="0.13"/>
                        <speed sOffset="0" max="13.89"/>
                    </lane>
                 </right>
            </laneSection>
        </lanes>
        <objects/>
        <signals/>
    </road>
    <road name="" length="0.20000000" id="604" junction="-1">
        <link>
            <predecessor elementType="junction" elementId="5"/>
            <successor elementType="junction" elementId="6"/>
        </link>
        <type s="0" type="town"/>
        <planView>
            <geometry s="0.00000000" x="232.78207318" y="572.07007468" hdg="1.22630396" length="0.20000000">
                <line/>
            </geometry>
        </planView>
        <elevationProfile>
            <elevation s="0" a="0.00" b="0" c="0" d="0"/>
        </elevationProfile>
        <lateralProfile/>
        <lanes>
            <laneSection s="0">
                <center>
                    <lane id="0" type="none" level="true">
                        <link/>
                        <roadMark sOffset="0" type="solid" weight="standard" color="standard" width="0.13"/>
                    </lane>
                </center>
                <right>
                    <lane id="-1" type="driving" level="true">
                        <link/>
                        <width sOffset="0" a="3.20" b="0" c="0" d="0"/>
                        <roadMark sOffset="0" type="solid" weight="standard" color="standard" width="0.13"/>
                        <speed sOffset="0" max="13.89"/>
                    </lane>
                 </right>
            </laneSection>
        </lanes>
        <objects/>
        <signals/>
    </road>
    <road name="" length="78.72347635" id="605" junction="-1">
        <link>
            <predecessor elementType="junction" elementId="7"/>
            <successor elementType="junction" elementId="8"/>
        </link>
        <type s="0" type="town"/>
        <planView>
            <geometry s="0.00000000" x="182.13288938" y="395.80035259" hdg="1.34818033" length="78.72347635">
                <line/>
            </geometry>
        </planView>
        <elevationProfile>
            <elevation s="0" a="0.00" b="0" c="0" d="0"/>
        </elevationProfile>
        <lateralProfile/>
        <lanes>
            <laneSection s="0">
                <center>
                    <lane id="0" type="none" level="true">
                        <link/>
                        <roadMark sOffset="0" type="solid" weight="standard" color="standard" width="0.13"/>
                    </lane>
                </center>
                <right>
                    <lane id="-1" type="driving" level="true">
                        <link/>
                        <width sOffset="0" a="4.00" b="0" c="0" d="0"/>
                        <roadMark sOffset="0" type="solid" weight="standard" color="standard" width="0.13"/>
                        <speed sOffset="0" max="13.89"/>
                    </lane>
                 </right>
            </laneSection>
        </lanes>
        <objects/>
        <signals/>
    </road>
    <road name="" length="53.44085547" id="606" junction="-1">
        <link>
            <predecessor elementType="junction" elementId="9"/>
            <successor elementType="junction" elementId="7"/>
        </link>
        <type s="0" type="town"/>
        <planView>
            <geometry s="0.00000000" x="168.27270799" y="334.53471616" hdg="1.34851623" length="15.13345681">
                <line/>
            </geometry>
            <geometry s="15.13345681" x="171.60894200" y="349.29584951" hdg="1.34851623" length="13.88999986">
                <paramPoly3 aU="0.00000000" bU="10.41749987" cU="10.41749987" dU="-6.94500009" aV="0.00000000" bV="-0.00000000" cV="-0.00327888" dV="0.00109296" pRange="normalized"/>
            </geometry>
            <geometry s="29.02345667" x="174.67318281" y="362.84363617" hdg="1.34820148" length="24.41739880">
                <line/>
            </geometry>
        </planView>
        <elevationProfile>
            <elevation s="0" a="0.00" b="0" c="0" d="0"/>
        </elevationProfile>
        <lateralProfile/>
        <lanes>
            <laneSection s="0">
                <center>
                    <lane id="0" type="none" level="true">
                        <link/>
                        <roadMark sOffset="0" type="solid" weight="standard" color="standard" width="0.13"/>
                    </lane>
                </center>
                <right>
                    <lane id="-1" type="driving" level="true">
                        <link/>
                        <width sOffset="0" a="3.20" b="0" c="0" d="0"/>
                        <roadMark sOffset="0" type="solid" weight="standard" color="standard" width="0.13"/>
                        <speed sOffset="0" max="13.89"/>
                    </lane>
                 </right>
            </laneSection>
        </lanes>
        <objects/>
        <signals/>
    </road>
    <road name="" length="189.46338716" id="607" junction="-1">
        <link>
            <predecessor elementType="junction" elementId="10"/>
            <successor elementType="junction" elementId="9"/>
        </link>
        <type s="0" type="town"/>
        <planView>
            <geometry s="0.00000000" x="141.65000000" y="147.43000000" hdg="1.60015359" length="18.60600976">
                <line/>
            </geometry>
            <geometry s="18.60600976" x="141.10385691" y="166.02799256" hdg="1.60015359" length="13.88175432">
                <paramPoly3 aU="0.00000000" bU="10.41047093" cU="10.39749849" dU="-6.93670728" aV="-0.00000000" bV="-0.00000000" cV="-0.96849600" dV="0.45867465" pRange="normalized"/>
            </geometry>
            <geometry s="32.48776408" x="141.20629477" y="179.90824247" hdg="1.54624250" length="12.18572494">
                <paramPoly3 aU="0.00000000" bU="9.13902864" cU="9.13703780" dU="-6.09302668" aV="0.00000000" bV="-0.00000000" cV="-0.41271541" dV="0.17434334" pRange="normalized"/>
            </geometry>
            <geometry s="44.67348902" x="141.74370523" y="192.08175753" hdg="1.51314751" length="13.88567762">
                <paramPoly3 aU="0.00000000" bU="10.41413804" cU="10.41348986" dU="-6.94308948" aV="0.00000000" bV="-0.00000000" cV="-0.27632334" dV="0.11144096" pRange="normalized"/>
            </geometry>
            <geometry s="58.55916664" x="142.70829761" y="205.93373049" hdg="1.49218180" length="7.73776488">
                <paramPoly3 aU="0.00000000" bU="5.80303213" cU="5.80536593" dU="-3.87205167" aV="0.00000000" bV="0.00000000" cV="-0.12787295" dV="0.00164122" pRange="normalized"/>
            </geometry>
            <geometry s="66.29693152" x="143.44170239" y="213.63626951" hdg="1.44894572" length="13.87812237">
                <paramPoly3 aU="0.00000000" bU="10.40834418" cU="10.40841764" dU="-6.94053249" aV="0.00000000" bV="0.00000000" cV="-0.30999654" dV="0.10172516" pRange="normalized"/>
            </geometry>
            <geometry s="80.17505389" x="145.33507554" y="227.38429685" hdg="1.41869445" length="7.92810998">
                <paramPoly3 aU="0.00000000" bU="5.94583114" cU="5.94184221" dU="-3.96272113" aV="0.00000000" bV="-0.00000000" cV="-0.40385745" dV="0.19232401" pRange="normalized"/>
            </geometry>
            <geometry s="88.10316387" x="146.74492446" y="235.18570314" hdg="1.37987720" length="13.88775162">
                <paramPoly3 aU="0.00000000" bU="10.41560845" cU="10.41812481" dU="-6.94658834" aV="0.00000000" bV="-0.00000000" cV="-0.01793252" dV="-0.07824100" pRange="normalized"/>
            </geometry>
            <geometry s="101.99091549" x="149.47459465" y="248.80227187" hdg="1.35389518" length="46.23888205">
                <line/>
            </geometry>
            <geometry s="148.22979755" x="159.42540616" y="293.95773182" hdg="1.35389518" length="13.88998994">
                <paramPoly3 aU="0.00000000" bU="10.41749047" cU="10.41749047" dU="-6.94500635" aV="0.00000000" bV="-0.00000000" cV="0.02817672" dV="-0.00939226" pRange="normalized"/>
            </geometry>
            <geometry s="162.11978749" x="162.39624567" y="307.52629327" hdg="1.35659993" length="27.34359968">
                <line/>
            </geometry>
        </planView>
        <elevationProfile>
            <elevation s="0" a="0.00" b="0" c="0" d="0"/>
        </elevationProfile>
        <lateralProfile/>
        <lanes>
            <laneSection s="0">
                <center>
                    <lane id="0" type="none" level="true">
                        <link/>
                        <roadMark sOffset="0" type="solid" weight="standard" color="standard" width="0.13"/>
                    </lane>
                </center>
                <right>
                    <lane id="-1" type="driving" level="true">
                        <link/>
                        <width sOffset="0" a="3.20" b="0" c="0" d="0"/>
                        <roadMark sOffset="0" type="solid" weight="standard" color="standard" width="0.13"/>
                        <speed sOffset="0" max="13.89"/>
                    </lane>
                 </right>
            </laneSection>
        </lanes>
        <objects/>
        <signals>
            <signal id="7166186943_1" s="189.46" t="-1.60" orientation="+" dynamic="yes" zOffset="5" country="OpenDRIVE" type="1000011" subtype="30" height="0.78" width="0.26">
                <validity fromLane="0" toLane="0"/>
            </signal>
        </signals>
    </road>
    <road name="" length="26.82426187" id="608" junction="-1">
        <link>
            <predecessor elementType="junction" elementId="11"/>
            <successor elementType="junction" elementId="12"/>
        </link>
        <type s="0" type="town"/>
        <planView>
            <geometry s="0.00000000" x="242.34071382" y="425.70357350" hdg="1.78994003" length="5.38521962">
                <line/>
            </geometry>
            <geometry s="5.38521962" x="241.17000000" y="430.96000000" hdg="1.78994003" length="8.44947228">
                <paramPoly3 aU="0.00000000" bU="6.33590217" cU="6.34036448" dU="-4.23457022" aV="-0.00000000" bV="0.00000000" cV="-0.42952850" dV="0.10663292" pRange="normalized"/>
            </geometry>
            <geometry s="13.83469190" x="239.65000000" y="439.27000000" hdg="1.70474126" length="12.98956997">
                <line/>
            </geometry>
        </planView>
        <elevationProfile>
            <elevation s="0" a="0.00" b="0" c="0" d="0"/>
        </elevationProfile>
        <lateralProfile/>
        <lanes>
            <laneSection s="0">
                <center>
                    <lane id="0" type="none" level="true">
                        <link/>
                        <roadMark sOffset="0" type="solid" weight="standard" color="standard" width="0.13"/>
                    </lane>
                </center>
                <right>
                    <lane id="-1" type="driving" level="true">
                        <link/>
                        <width sOffset="0" a="3.25" b="0" c="0" d="0"/>
                        <roadMark sOffset="0" type="broken" weight="standard" color="standard" width="0.13"/>
                        <speed sOffset="0" max="13.89"/>
                    </lane>
                    <lane id="-2" type="driving" level="true">
                        <link/>
                        <width sOffset="0" a="3.25" b="0" c="0" d="0"/>
                        <roadMark sOffset="0" type="solid" weight="standard" color="standard" width="0.13"/>
                        <speed sOffset="0" max="13.89"/>
                    </lane>
                 </right>
            </laneSection>
        </lanes>
        <objects/>
        <signals/>
    </road>
    <road name="" length="208.25153591" id="609" junction="-1">
        <link>
            <predecessor elementType="junction" elementId="13"/>
            <successor elementType="junction" elementId="11"/>
        </link>
        <type s="0" type="town"/>
        <planView>
            <geometry s="0.00000000" x="313.59872658" y="226.97927172" hdg="1.92355146" length="32.79259385">
                <line/>
            </geometry>
            <geometry s="32.79259385" x="302.26939047" y="257.75264259" hdg="1.92355146" length="13.88999996">
                <paramPoly3 aU="0.00000000" bU="10.41749997" cU="10.41749997" dU="-6.94500002" aV="-0.00000000" bV="0.00000000" cV="-0.00166366" dV="0.00055455" pRange="normalized"/>
            </geometry>
            <geometry s="46.68259382" x="297.47165024" y="270.78774088" hdg="1.92339176" length="82.39339460">
                <line/>
            </geometry>
            <geometry s="129.07598841" x="269.01834967" y="348.11225937" hdg="1.92339176" length="13.88999996">
                <paramPoly3 aU="0.00000000" bU="10.41749996" cU="10.41749996" dU="-6.94500003" aV="-0.00000000" bV="0.00000000" cV="0.00184644" dV="-0.00061548" pRange="normalized"/>
            </geometry>
            <geometry s="142.96598837" x="264.22049509" y="361.14731556" hdg="1.92356900" length="47.49766886">
                <line/>
            </geometry>
            <geometry s="190.46365723" x="247.81000000" y="405.72000000" hdg="1.92356900" length="10.87658958">
                <paramPoly3 aU="0.00000000" bU="8.15520079" cU="8.11595432" dU="-5.42374422" aV="-0.00000000" bV="-0.00000000" cV="-1.46281524" dV="0.70857595" pRange="normalized"/>
            </geometry>
            <geometry s="201.34024681" x="244.77000000" y="416.16000000" hdg="1.82532607" length="6.91128910">
                <line/>
            </geometry>
        </planView>
        <elevationProfile>
            <elevation s="0" a="0.00" b="0" c="0" d="0"/>
        </elevationProfile>
        <lateralProfile/>
        <lanes>
            <laneSection s="0">
                <center>
                    <lane id="0" type="none" level="true">
                        <link/>
                        <roadMark sOffset="0" type="solid" weight="standard" color="standard" width="0.13"/>
                    </lane>
                </center>
                <right>
                    <lane id="-1" type="driving" level="true">
                        <link/>
                        <width sOffset="0" a="3.20" b="0" c="0" d="0"/>
                        <roadMark sOffset="0" type="broken" weight="standard" color="standard" width="0.13"/>
                        <speed sOffset="0" max="13.89"/>
                    </lane>
                    <lane id="-2" type="driving" level="true">
                        <link/>
                        <width sOffset="0" a="3.20" b="0" c="0" d="0"/>
                        <roadMark sOffset="0" type="solid" weight="standard" color="standard" width="0.13"/>
                        <speed sOffset="0" max="13.89"/>
                    </lane>
                 </right>
            </laneSection>
        </lanes>
        <objects/>
        <signals/>
    </road>
    <road name="" length="35.94275728" id="610" junction="-1">
        <link>
            <predecessor elementType="junction" elementId="14"/>
            <successor elementType="junction" elementId="13"/>
        </link>
        <type s="0" type="town"/>
        <planView>
            <geometry s="0.00000000" x="326.32768108" y="193.04890829" hdg="1.93100706" length="13.66830469">
                <line/>
            </geometry>
            <geometry s="13.66830469" x="321.50999390" y="205.84001627" hdg="1.93100706" length="4.55293273">
                <paramPoly3 aU="0.00000000" bU="3.41469470" cU="3.41452858" dU="-2.27637386" aV="-0.00000000" bV="-0.00000000" cV="-0.05838368" dV="0.03193027" pRange="normalized"/>
            </geometry>
            <geometry s="18.22123743" x="319.93000016" y="210.10999956" hdg="1.92486400" length="4.15738707">
                <paramPoly3 aU="0.00000000" bU="3.11803420" cU="3.11810265" dU="-2.07875819" aV="-0.00000000" bV="-0.00000000" cV="-0.02533110" dV="0.02381575" pRange="normalized"/>
            </geometry>
            <geometry s="22.37862450" x="318.48999173" y="214.01002203" hdg="1.93153013" length="13.56413279">
                <line/>
            </geometry>
        </planView>
        <elevationProfile>
            <elevation s="0" a="0.00" b="0" c="0" d="0"/>
        </elevationProfile>
        <lateralProfile/>
        <lanes>
            <laneSection s="0">
                <center>
                    <lane id="0" type="none" level="true">
                        <link/>
                        <roadMark sOffset="0" type="solid" weight="standard" color="standard" width="0.13"/>
                    </lane>
                </center>
                <right>
                    <lane id="-1" type="driving" level="true">
                        <link/>
                        <width sOffset="0" a="3.20" b="0" c="0" d="0"/>
                        <roadMark sOffset="0" type="broken" weight="standard" color="standard" width="0.13"/>
                        <speed sOffset="0" max="13.89"/>
                    </lane>
                    <lane id="-2" type="driving" level="true">
                        <link/>
                        <width sOffset="0" a="3.20" b="0" c="0" d="0"/>
                        <roadMark sOffset="0" type="solid" weight="standard" color="standard" width="0.13"/>
                        <speed sOffset="0" max="13.89"/>
                    </lane>
                 </right>
            </laneSection>
        </lanes>
        <objects/>
        <signals/>
    </road>
    <road name="" length="188.68902027" id="611" junction="-1">
        <link>
            <predecessor elementType="junction" elementId="15"/>
            <successor elementType="junction" elementId="14"/>
        </link>
        <type s="0" type="town"/>
        <planView>
            <geometry s="0.00000000" x="391.53847001" y="15.67016851" hdg="1.92308898" length="188.68902027">
                <line/>
            </geometry>
        </planView>
        <elevationProfile>
            <elevation s="0" a="0.00" b="0" c="0" d="0"/>
        </elevationProfile>
        <lateralProfile/>
        <lanes>
            <laneSection s="0">
                <center>
                    <lane id="0" type="none" level="true">
                        <link/>
                        <roadMark sOffset="0" type="solid" weight="standard" color="standard" width="0.13"/>
                    </lane>
                </center>
                <right>
                    <lane id="-1" type="driving" level="true">
                        <link/>
                        <width sOffset="0" a="3.20" b="0" c="0" d="0"/>
                        <roadMark sOffset="0" type="broken" weight="standard" color="standard" width="0.13"/>
                        <speed sOffset="0" max="13.89"/>
                    </lane>
                    <lane id="-2" type="driving" level="true">
                        <link/>
                        <width sOffset="0" a="3.20" b="0" c="0" d="0"/>
                        <roadMark sOffset="0" type="solid" weight="standard" color="standard" width="0.13"/>
                        <speed sOffset="0" max="13.89"/>
                    </lane>
                 </right>
            </laneSection>
        </lanes>
        <objects/>
        <signals/>
    </road>
    <road name="" length="16.42838262" id="612" junction="-1">
        <link>
            <predecessor elementType="junction" elementId="16"/>
            <successor elementType="junction" elementId="15"/>
        </link>
        <type s="0" type="town"/>
        <planView>
            <geometry s="0.00000000" x="397.39000000" y="0.00000000" hdg="1.92822557" length="16.42838262">
                <line/>
            </geometry>
        </planView>
        <elevationProfile>
            <elevation s="0" a="0.00" b="0" c="0" d="0"/>
        </elevationProfile>
        <lateralProfile/>
        <lanes>
            <laneSection s="0">
                <center>
                    <lane id="0" type="none" level="true">
                        <link/>
                        <roadMark sOffset="0" type="solid" weight="standard" color="standard" width="0.13"/>
                    </lane>
                </center>
                <right>
                    <lane id="-1" type="driving" level="true">
                        <link/>
                        <width sOffset="0" a="3.20" b="0" c="0" d="0"/>
                        <roadMark sOffset="0" type="broken" weight="standard" color="standard" width="0.13"/>
                        <speed sOffset="0" max="13.89"/>
                    </lane>
                    <lane id="-2" type="driving" level="true">
                        <link/>