<?xml version="1.0" encoding="UTF-8"?>

<!-- generated on 2025-04-02 14:53:24 by Eclipse SUMO netedit Version 1.22.0
<neteditConfiguration xmlns:xsi="http://www.w3.org/2001/XMLSchema-instance" xsi:noNamespaceSchemaLocation="http://sumo.dlr.de/xsd/neteditConfiguration.xsd">

    <input>
        <sumocfg-file value="C:\Users\schlamp\Documents\GitHub\prediction_simulation\sumo_5going\sumo_FZG.sumocfg"/>
        <additional-files value=""/>
        <route-files value="C:\Users\schlamp\Documents\GitHub\prediction_simulation\sumo_5going\add_ego.rou.xml"/>
        <sumo-net-file value="C:\Users\schlamp\Documents\GitHub\prediction_simulation\sumo_5going\5GoIng_FZG.net.xml"/>
    </input>

    <output>
        <output-file value="C:\Users\schlamp\Documents\GitHub\prediction_simulation\sumo_5going\5GoIng_FZG.net.xml"/>
    </output>

    <processing>
        <geometry.min-radius.fix.railways value="false"/>
        <geometry.max-grade.fix value="false"/>
        <offset.disable-normalization value="true"/>
        <lefthand value="0"/>
    </processing>

    <junctions>
        <no-turnarounds value="true"/>
        <junctions.corner-detail value="5"/>
        <junctions.limit-turn-speed value="5.50"/>
        <rectangular-lane-cut value="0"/>
    </junctions>

    <pedestrian>
        <walkingareas value="0"/>
    </pedestrian>

    <netedit>
        <ignore.routeelements value="false"/>
    </netedit>

</neteditConfiguration>
-->

<net version="1.20" junctionCornerDetail="5" limitTurnSpeed="5.50" xmlns:xsi="http://www.w3.org/2001/XMLSchema-instance" xsi:noNamespaceSchemaLocation="http://sumo.dlr.de/xsd/net_file.xsd">

    <location netOffset="-681869.64,-5402664.37" convBoundary="0.00,0.00,648.27,637.41" origBoundary="11.474495,48.750298,11.486511,48.756559" projParameter="+proj=utm +zone=32 +ellps=WGS84 +datum=WGS84 +units=m +no_defs"/>

    <type id="highway.path" priority="1" numLanes="1" speed="5.56" allow="pedestrian bicycle" oneway="0" width="2.00"/>
    <type id="highway.service" priority="1" numLanes="1" speed="5.56" allow="pedestrian delivery bicycle" oneway="0"/>
    <type id="highway.tertiary" priority="10" numLanes="1" speed="22.22" disallow="tram rail_urban rail rail_electric rail_fast ship" oneway="0"/>
    <type id="highway.unclassified" priority="4" numLanes="1" speed="13.89" disallow="tram rail_urban rail rail_electric rail_fast ship" oneway="0"/>

    <edge id=":17200870_0" function="internal">
        <lane id=":17200870_0_0" index="0" disallow="pedestrian tram rail_urban rail rail_electric rail_fast ship cable_car subway" speed="3.65" length="4.67" shape="140.05,147.38 140.89,146.21 141.70,145.83 142.48,146.25 143.25,147.48"/>
    </edge>
    <edge id=":2117911027_0" function="internal">
        <lane id=":2117911027_0_0" index="0" disallow="pedestrian tram rail_urban rail rail_electric rail_fast ship cable_car subway" speed="13.89" length="9.11" width="4.00" shape="201.39,481.21 200.53,478.69 199.49,477.11 198.45,475.54 197.56,473.02"/>
    </edge>
    <edge id=":2117911027_1" function="internal">
        <lane id=":2117911027_1_0" index="0" disallow="pedestrian tram rail_urban rail rail_electric rail_fast ship cable_car subway" speed="7.89" length="6.52" width="4.00" shape="201.46,472.14 202.01,473.86 202.81,475.29 203.85,476.42 205.14,477.26"/>
    </edge>
    <edge id=":2117911028_0" function="internal">
        <lane id=":2117911028_0_0" index="0" disallow="pedestrian tram rail_urban rail rail_electric rail_fast ship cable_car subway" speed="13.89" length="13.21" shape="201.12,505.83 197.76,505.04 194.65,504.74 191.50,504.74 188.02,504.83"/>
    </edge>
    <edge id=":2117911028_1" function="internal">
        <lane id=":2117911028_1_0" index="0" disallow="pedestrian tram rail_urban rail rail_electric rail_fast ship cable_car subway" speed="13.89" length="11.80" shape="187.96,501.63 199.75,501.25"/>
    </edge>
    <edge id=":251021099_0" function="internal">
        <lane id=":251021099_0_0" index="0" disallow="pedestrian tram rail_urban rail rail_electric rail_fast ship cable_car subway" speed="4.81" length="2.89" width="6.50" shape="199.95,501.23 199.57,498.37"/>
    </edge>
    <edge id=":251021099_1" function="internal">
        <lane id=":251021099_1_0" index="0" disallow="pedestrian tram rail_urban rail rail_electric rail_fast ship cable_car subway" speed="13.89" length="5.57" width="5.00" shape="199.95,501.23 205.52,501.08"/>
    </edge>
    <edge id=":7166186943_0" function="internal">
        <lane id=":7166186943_0_0" index="0" disallow="pedestrian tram rail_urban rail rail_electric rail_fast ship cable_car subway" speed="13.89" length="0.31" shape="166.71,334.89 166.65,334.59"/>
    </edge>
    <edge id=":7166186943_1" function="internal">
        <lane id=":7166186943_1_0" index="0" disallow="pedestrian tram rail_urban rail rail_electric rail_fast ship cable_car subway" speed="13.89" length="0.28" shape="169.77,333.90 169.83,334.18"/>
    </edge>
    <edge id=":7166186947_0" function="internal">
        <lane id=":7166186947_0_0" index="0" disallow="pedestrian tram rail_urban rail rail_electric rail_fast ship cable_car subway" speed="13.89" length="2.82" width="3.25" shape="247.68,424.06 247.10,426.76"/>
        <lane id=":7166186947_0_1" index="1" disallow="pedestrian tram rail_urban rail rail_electric rail_fast ship cable_car subway" speed="13.89" length="2.82" width="3.25" shape="244.58,423.25 243.93,426.06"/>
    </edge>
    <edge id=":7166186947_2" function="internal">
        <lane id=":7166186947_2_0" index="0" disallow="pedestrian tram rail_urban rail rail_electric rail_fast ship cable_car subway" speed="13.89" length="3.05" shape="237.58,424.64 238.38,421.64"/>
        <lane id=":7166186947_2_1" index="1" disallow="pedestrian tram rail_urban rail rail_electric rail_fast ship cable_car subway" speed="13.89" length="3.05" shape="240.75,425.35 241.48,422.45"/>
    </edge>
    <edge id=":7166186951_0" function="internal">
        <lane id=":7166186951_0_0" index="0" allow="pedestrian" speed="1.00" length="6.50" width="2.50" shape="266.71,493.51 265.59,495.10 264.73,496.19 264.18,497.38 264.00,499.22"/>
    </edge>
    <edge id=":7166186951_1" function="internal">
        <lane id=":7166186951_1_0" index="0" disallow="pedestrian tram rail_urban rail rail_electric rail_fast ship cable_car subway" speed="13.89" length="8.14" width="5.50" shape="261.80,492.64 268.48,497.28"/>
    </edge>
    <edge id=":7166186951_2" function="internal">
        <lane id=":7166186951_2_0" index="0" allow="pedestrian" speed="1.00" length="6.78" width="2.00" shape="261.65,498.36 262.55,496.57 263.22,495.36 263.94,494.19 264.99,492.47"/>
    </edge>
    <edge id=":7166186963_0" function="internal">
        <lane id=":7166186963_0_0" index="0" disallow="pedestrian tram rail_urban rail rail_electric rail_fast ship cable_car subway" speed="11.22" length="1.77" width="6.50" shape="205.32,477.35 206.75,478.38"/>
    </edge>
    <edge id=":7166186966_0" function="internal">
        <lane id=":7166186966_0_0" index="0" disallow="pedestrian tram rail_urban rail rail_electric rail_fast ship cable_car subway" speed="13.89" length="20.49" width="5.50" shape="242.75,452.79 242.50,459.42 243.41,464.69 244.94,468.96 246.56,472.59"/>
    </edge>
    <edge id=":7166186966_1" function="internal">
        <lane id=":7166186966_1_0" index="0" disallow="pedestrian tram rail_urban rail rail_electric rail_fast ship cable_car subway" speed="11.80" length="22.87" width="5.00" shape="239.53,452.36 239.01,459.41 239.15,465.62 239.50,470.92 239.60,475.20"/>
    </edge>
    <edge id=":7166186966_2" function="internal">
        <lane id=":7166186966_2_0" index="0" disallow="pedestrian tram rail_urban rail rail_electric rail_fast ship cable_car subway" speed="13.89" length="21.65" width="3.25" shape="228.00,472.29 230.04,468.88 231.32,464.23 232.20,458.41 233.08,451.49"/>
    </edge>
    <edge id=":7166186966_3" function="internal">
        <lane id=":7166186966_3_0" index="0" disallow="pedestrian tram rail_urban rail rail_electric rail_fast ship cable_car subway" speed="18.05" length="23.11" width="3.25" shape="234.36,474.95 236.30,451.93"/>
    </edge>
    <edge id=":7166186967_0" function="internal">
        <lane id=":7166186967_0_0" index="0" disallow="pedestrian tram rail_urban rail rail_electric rail_fast ship cable_car subway" speed="13.89" length="10.77" shape="298.36,513.88 295.44,512.85 293.26,512.16 291.04,511.58 288.02,510.89"/>
    </edge>
    <edge id=":7166186967_1" function="internal">
        <lane id=":7166186967_1_0" index="0" disallow="pedestrian tram rail_urban rail rail_electric rail_fast ship cable_car subway" speed="13.89" length="11.39" shape="289.42,504.64 292.79,505.36 295.09,505.86 297.36,506.49 300.61,507.60"/>
        <lane id=":7166186967_1_1" index="1" disallow="pedestrian tram rail_urban rail rail_electric rail_fast ship cable_car subway" speed="13.89" length="11.39" shape="288.72,507.77 291.97,508.46 294.20,508.94 296.39,509.54 299.53,510.61"/>
    </edge>
    <edge id=":7166186974_0" function="internal">
        <lane id=":7166186974_0_0" index="0" disallow="pedestrian tram rail_urban rail rail_electric rail_fast ship cable_car subway" speed="13.89" length="7.59" width="5.00" shape="228.27,539.34 227.98,537.10 227.84,535.57 227.79,534.03 227.79,531.78"/>
    </edge>
    <edge id=":7166186974_1" function="internal">
        <lane id=":7166186974_1_0" index="0" allow="pedestrian" speed="1.00" length="7.92" width="2.00" shape="231.29,537.16 228.95,536.86 227.34,536.76 225.74,536.59 223.45,536.07"/>
    </edge>
    <edge id=":7166186974_2" function="internal">
        <lane id=":7166186974_2_0" index="0" allow="pedestrian" speed="1.00" length="8.02" width="2.00" shape="223.68,534.06 226.00,534.59 227.62,534.77 229.25,534.88 231.61,535.18"/>
    </edge>
    <edge id=":7166186975_0" function="internal">
        <lane id=":7166186975_0_0" index="0" disallow="pedestrian tram rail_urban rail rail_electric rail_fast ship cable_car subway" speed="13.89" length="9.85" width="5.00" shape="227.97,549.35 228.09,546.43 228.35,544.43 228.51,542.43 228.30,539.53"/>
    </edge>
    <edge id=":7166186975_1" function="internal">
        <lane id=":7166186975_1_0" index="0" disallow="pedestrian tram rail_urban rail rail_electric rail_fast ship cable_car subway" speed="13.89" length="9.27" width="3.75" shape="233.79,540.50 232.57,542.96 231.85,544.73 231.51,546.58 231.45,549.31"/>
    </edge>
    <edge id=":7166186976_0" function="internal">
        <lane id=":7166186976_0_0" index="0" allow="pedestrian" speed="1.00" length="8.34" width="2.00" shape="239.64,538.93 231.49,537.19"/>
    </edge>
    <edge id=":7166186976_1" function="internal">
        <lane id=":7166186976_1_0" index="0" disallow="pedestrian tram rail_urban rail rail_electric rail_fast ship cable_car subway" speed="13.89" length="7.64" width="5.50" shape="236.86,533.30 236.08,535.43 235.51,536.87 234.87,538.28 233.88,540.32"/>
    </edge>
    <edge id=":7166186976_2" function="internal">
        <lane id=":7166186976_2_0" index="0" allow="pedestrian" speed="1.00" length="8.51" width="2.00" shape="231.81,535.21 240.14,536.99"/>
    </edge>
    <edge id=":7166186977_0" function="internal">
        <lane id=":7166186977_0_0" index="0" allow="pedestrian" speed="1.00" length="7.91" width="2.49" shape="262.57,516.00 261.76,508.13"/>
    </edge>
    <edge id=":7166186977_1" function="internal">
        <lane id=":7166186977_1_0" index="0" disallow="pedestrian tram rail_urban rail rail_electric rail_fast ship cable_car subway" speed="13.89" length="7.24" width="5.00" shape="266.34,510.92 264.22,511.31 262.79,511.63 261.37,512.01 259.30,512.61"/>
    </edge>
    <edge id=":7166186977_2" function="internal">
        <lane id=":7166186977_2_0" index="0" allow="pedestrian" speed="1.00" length="7.82" width="2.00" shape="264.25,508.01 264.56,515.82"/>
    </edge>
    <edge id=":7166186978_0" function="internal">
        <lane id=":7166186978_0_0" index="0" disallow="pedestrian tram rail_urban rail rail_electric rail_fast ship cable_car subway" speed="13.89" length="18.50" width="5.00" shape="284.94,510.20 280.70,509.72 275.75,509.80 270.80,510.25 266.53,510.89"/>
    </edge>
    <edge id=":7166186978_1" function="internal">
        <lane id=":7166186978_1_0" index="0" disallow="pedestrian tram rail_urban rail rail_electric rail_fast ship cable_car subway" speed="13.89" length="17.23" shape="270.14,498.45 273.22,500.26 276.64,501.58 280.86,502.71 286.33,503.95"/>
    </edge>
    <edge id=":7166186978_2" function="internal">
        <lane id=":7166186978_2_0" index="0" disallow="pedestrian tram rail_urban rail rail_electric rail_fast ship cable_car subway" speed="13.89" length="19.15" shape="266.64,504.61 285.64,507.08"/>
    </edge>
    <edge id=":7166186979_0" function="internal">
        <lane id=":7166186979_0_0" index="0" allow="pedestrian" speed="1.00" length="8.70" width="2.50" shape="261.75,507.93 261.50,499.23"/>
    </edge>
    <edge id=":7166186979_1" function="internal">
        <lane id=":7166186979_1_0" index="0" allow="pedestrian" speed="1.00" length="8.34" width="2.49" shape="264.01,499.48 264.24,507.81"/>
    </edge>
    <edge id=":7166186979_2" function="internal">
        <lane id=":7166186979_2_0" index="0" disallow="tram rail_urban rail rail_electric rail_fast ship cable_car subway" speed="13.89" length="8.09" width="5.50" shape="258.47,503.30 260.85,503.57 262.48,503.79 264.10,504.08 266.45,504.57"/>
    </edge>
    <edge id=":7166186980_0" function="internal">
        <lane id=":7166186980_0_0" index="0" allow="pedestrian" speed="1.00" length="7.64" width="2.00" shape="244.85,484.15 242.60,484.42 241.05,484.57 239.50,484.63 237.24,484.62"/>
    </edge>
    <edge id=":7166186980_1" function="internal">
        <lane id=":7166186980_1_0" index="0" disallow="pedestrian tram rail_urban rail rail_electric rail_fast ship cable_car subway" speed="6.25" length="7.18" width="5.00" shape="239.89,480.26 241.34,487.30"/>
    </edge>
    <edge id=":7166186980_2" function="internal">
        <lane id=":7166186980_2_0" index="0" allow="pedestrian" speed="1.00" length="7.37" width="2.00" shape="237.26,482.62 239.45,482.63 240.94,482.58 242.44,482.43 244.61,482.17"/>
    </edge>
    <edge id=":7166186981_0" function="internal">
        <lane id=":7166186981_0_0" index="0" disallow="pedestrian tram rail_urban rail rail_electric rail_fast ship cable_car subway" speed="9.03" length="3.75" width="5.00" shape="239.55,476.34 239.51,477.46 239.53,478.22 239.64,478.98 239.85,480.07"/>
    </edge>
    <edge id=":7166186981_1" function="internal">
        <lane id=":7166186981_1_0" index="0" disallow="tram rail_urban rail rail_electric rail_fast ship cable_car subway" speed="18.05" length="4.86" width="5.50" shape="234.06,480.92 234.34,479.52 234.37,478.54 234.30,477.54 234.30,476.10"/>
    </edge>
    <edge id=":7166186982_0" function="internal">
        <lane id=":7166186982_0_0" index="0" allow="pedestrian" speed="1.00" length="8.15" width="2.00" shape="237.04,484.62 234.62,484.58 232.96,484.49 231.31,484.30 228.92,483.97"/>
    </edge>
    <edge id=":7166186982_1" function="internal">
        <lane id=":7166186982_1_0" index="0" allow="pedestrian" speed="1.00" length="7.90" width="2.00" shape="229.19,481.99 231.52,482.31 233.11,482.49 234.71,482.58 237.06,482.62"/>
    </edge>
    <edge id=":7166186982_2" function="internal">
        <lane id=":7166186982_2_0" index="0" disallow="tram rail_urban rail rail_electric rail_fast ship cable_car subway" speed="13.89" length="6.48" width="5.50" shape="232.25,487.35 234.01,481.12"/>
    </edge>
    <edge id=":7166186983_0" function="internal">
        <lane id=":7166186983_0_0" index="0" allow="pedestrian" speed="1.00" length="8.68" width="2.00" shape="212.85,496.75 210.10,504.98"/>
    </edge>
    <edge id=":7166186983_1" function="internal">
        <lane id=":7166186983_1_0" index="0" disallow="tram rail_urban rail rail_electric rail_fast ship cable_car subway" speed="13.89" length="8.88" width="5.00" shape="205.83,501.06 214.71,501.05"/>
    </edge>
    <edge id=":7166186983_2" function="internal">
        <lane id=":7166186983_2_0" index="0" allow="pedestrian" speed="1.00" length="8.68" width="2.00" shape="208.20,504.35 210.95,496.11"/>
    </edge>
    <edge id=":7166186984_0" function="internal">
        <lane id=":7166186984_0_0" index="0" disallow="pedestrian tram rail_urban rail rail_electric rail_fast ship cable_car subway" speed="13.89" length="10.06" width="5.50" shape="214.22,510.39 204.77,506.95"/>
    </edge>
    <edge id=":7166186984_1" function="internal">
        <lane id=":7166186984_1_0" index="0" allow="pedestrian" speed="1.00" length="1.77" width="2.00" shape="210.04,505.17 209.13,506.69"/>
    </edge>
    <edge id=":7166186984_2" function="internal">
        <lane id=":7166186984_2_0" index="0" allow="pedestrian" speed="1.00" length="3.55" width="2.00" shape="207.06,507.89 207.19,506.86 207.43,506.19 207.75,505.52 208.14,504.54"/>
    </edge>
    <edge id=":7166206288_0" function="internal">
        <lane id=":7166206288_0_0" index="0" disallow="pedestrian tram rail_urban rail rail_electric rail_fast ship cable_car subway" speed="9.52" length="9.10" width="5.50" shape="241.80,525.12 240.66,525.89 239.50,527.41 238.30,529.67 237.09,532.68"/>
    </edge>
    <edge id=":7166206288_1" function="internal">
        <lane id=":7166206288_1_0" index="0" disallow="pedestrian tram rail_urban rail rail_electric rail_fast ship cable_car subway" speed="8.33" length="8.50" width="7.50" shape="241.80,525.12 239.42,525.92 237.72,526.28 235.98,526.25 233.50,525.87"/>
    </edge>
    <edge id=":7166206292_0" function="internal">
        <lane id=":7166206292_0_0" index="0" disallow="pedestrian tram rail_urban rail rail_electric rail_fast ship cable_car subway" speed="9.52" length="9.05" width="7.50" shape="258.67,512.79 255.59,513.80 253.26,514.82 251.66,515.86 250.80,516.91"/>
    </edge>
    <edge id=":7166206292_1" function="internal">
        <lane id=":7166206292_1_0" index="0" disallow="pedestrian tram rail_urban rail rail_electric rail_fast ship cable_car subway" speed="8.33" length="8.41" width="7.50" shape="252.29,508.81 252.48,511.28 252.35,513.00 251.82,514.64 250.80,516.91"/>
    </edge>
    <edge id=":7166206295_0" function="internal">
        <lane id=":7166206295_0_0" index="0" disallow="tram rail_urban rail rail_electric rail_fast ship cable_car subway" speed="9.80" length="9.21" width="5.50" shape="249.22,500.54 250.25,501.40 252.03,502.14 254.57,502.75 257.86,503.23"/>
    </edge>
    <edge id=":7166206295_1" function="internal">
        <lane id=":7166206295_1_0" index="0" disallow="tram rail_urban rail rail_electric rail_fast ship cable_car subway" speed="8.33" length="8.80" width="7.50" shape="249.22,500.54 250.67,502.69 251.50,504.30 251.95,506.04 252.27,508.61"/>
    </edge>
    <edge id=":7166206298_0" function="internal">
        <lane id=":7166206298_0_0" index="0" disallow="pedestrian tram rail_urban rail rail_electric rail_fast ship cable_car subway" speed="6.25" length="9.16" width="7.50" shape="241.52,488.21 242.30,491.43 243.12,493.90 244.00,495.60 244.93,496.55"/>
    </edge>
    <edge id=":7166206298_1" function="internal">
        <lane id=":7166206298_1_0" index="0" disallow="pedestrian tram rail_urban rail rail_electric rail_fast ship cable_car subway" speed="8.33" length="8.70" width="7.50" shape="236.77,494.11 239.33,494.21 241.08,494.54 242.71,495.26 244.93,496.55"/>
    </edge>
    <edge id=":7166206301_0" function="internal">
        <lane id=":7166206301_0_0" index="0" disallow="pedestrian tram rail_urban rail rail_electric rail_fast ship cable_car subway" speed="10.77" length="9.03" width="5.50" shape="228.67,496.02 230.57,494.41 231.27,492.76 231.51,490.75 232.03,488.08"/>
    </edge>
    <edge id=":7166206301_1" function="internal">
        <lane id=":7166206301_1_0" index="0" disallow="pedestrian tram rail_urban rail rail_electric rail_fast ship cable_car subway" speed="8.33" length="8.36" width="7.50" shape="228.67,496.02 230.80,494.81 232.40,494.24 234.13,494.09 236.60,494.11"/>
    </edge>
    <edge id=":7166206303_0" function="internal">
        <lane id=":7166206303_0_0" index="0" disallow="pedestrian tram rail_urban rail rail_electric rail_fast ship cable_car subway" speed="9.24" length="9.00" width="7.50" shape="215.59,501.09 218.78,501.10 221.29,500.85 223.12,500.34 224.26,499.56"/>
    </edge>
    <edge id=":7166206303_1" function="internal">
        <lane id=":7166206303_1_0" index="0" disallow="pedestrian tram rail_urban rail rail_electric rail_fast ship cable_car subway" speed="8.33" length="8.09" width="7.50" shape="220.60,506.60 221.14,504.28 221.75,502.74 222.69,501.37 224.26,499.56"/>
    </edge>
    <edge id=":7166206306_0" function="internal">
        <lane id=":7166206306_0_0" index="0" disallow="pedestrian tram rail_urban rail rail_electric rail_fast ship cable_car subway" speed="8.96" length="8.42" width="5.50" shape="221.03,515.28 220.36,514.04 219.03,512.83 217.04,511.63 214.41,510.46"/>
    </edge>
    <edge id=":7166206306_1" function="internal">
        <lane id=":7166206306_1_0" index="0" disallow="pedestrian tram rail_urban rail rail_electric rail_fast ship cable_car subway" speed="8.33" length="8.65" width="7.50" shape="221.03,515.28 220.36,512.82 220.05,511.07 220.12,509.30 220.56,506.79"/>
    </edge>
    <edge id=":7166206310_0" function="internal">
        <lane id=":7166206310_0_0" index="0" disallow="pedestrian tram rail_urban rail rail_electric rail_fast ship cable_car subway" speed="8.33" length="8.31" width="7.50" shape="233.30,525.83 230.91,525.35 229.31,524.78 227.86,523.87 225.91,522.38"/>
    </edge>
    <edge id=":7166206310_1" function="internal">
        <lane id=":7166206310_1_0" index="0" disallow="pedestrian tram rail_urban rail rail_electric rail_fast ship cable_car subway" speed="9.12" length="9.07" width="7.50" shape="227.79,531.05 227.68,527.81 227.33,525.29 226.74,523.48 225.91,522.38"/>
    </edge>
    <edge id=":7166206313_0" function="internal">
        <lane id=":7166206313_0_0" index="0" disallow="pedestrian tram rail_urban rail rail_electric rail_fast ship cable_car subway" speed="13.89" length="7.95" shape="234.07,580.10 232.97,578.01 232.19,576.58 231.57,575.09 230.95,572.83"/>
    </edge>
    <edge id=":7166206313_1" function="internal">
        <lane id=":7166206313_1_0" index="0" disallow="all" speed="7.66" length="11.78" width="3.75" shape="236.94,566.88 236.58,570.17 236.25,572.85 236.38,575.45 237.43,578.44"/>
    </edge>
    <edge id=":7166206313_2" function="internal">
        <lane id=":7166206313_2_0" index="0" disallow="pedestrian tram rail_urban rail rail_electric rail_fast ship cable_car subway" speed="13.89" length="7.37" width="3.75" shape="234.37,571.75 235.14,573.79 235.75,575.16 236.44,576.49 237.43,578.44"/>
    </edge>
    <edge id=":7166206315_0" function="internal">
        <lane id=":7166206315_0_0" index="0" disallow="pedestrian tram rail_urban rail rail_electric rail_fast ship cable_car subway" speed="13.89" length="3.34" width="6.50" shape="199.65,498.19 200.84,495.07"/>
    </edge>
    <edge id=":8069940667_0" function="internal">
        <lane id=":8069940667_0_0" index="0" disallow="pedestrian tram rail_urban rail rail_electric rail_fast ship cable_car subway" speed="13.89" length="7.49" width="3.25" shape="184.77,504.89 177.28,505.05"/>
    </edge>
    <edge id=":8069940667_1" function="internal">
        <lane id=":8069940667_1_0" index="0" disallow="pedestrian tram rail_urban rail rail_electric rail_fast ship cable_car subway" speed="13.89" length="7.50" shape="177.22,501.80 184.72,501.69"/>
    </edge>
    <edge id=":8069940675_0" function="internal">
        <lane id=":8069940675_0_0" index="0" allow="pedestrian" speed="1.00" length="5.82" width="4.08" shape="221.72,535.60 220.17,535.01 219.27,534.26 218.55,533.24 217.56,531.81"/>
    </edge>
    <edge id=":8069940675_1" function="internal">
        <lane id=":8069940675_1_0" index="0" allow="pedestrian" speed="1.00" length="1.97" width="4.08" shape="219.50,532.17 217.56,531.81"/>
    </edge>
    <edge id=":8069940675_2" function="internal">
        <lane id=":8069940675_2_0" index="0" allow="pedestrian" speed="1.00" length="3.17" width="2.00" shape="219.50,532.17 220.36,532.49 220.88,532.89 221.40,533.31 222.25,533.67"/>
    </edge>
    <edge id=":8069940675_3" function="internal">
        <lane id=":8069940675_3_0" index="0" allow="pedestrian" speed="1.21" length="6.01" width="4.08" shape="217.90,537.56 218.15,535.77 218.44,534.46 218.37,533.27 217.56,531.81"/>
    </edge>
    <edge id=":8069940675_4" function="internal">
        <lane id=":8069940675_4_0" index="0" allow="pedestrian" speed="1.21" length="7.02" width="2.00" shape="217.90,537.56 218.27,535.43 219.12,534.08 220.45,533.49 222.25,533.67"/>
    </edge>
    <edge id=":8069940678_0" function="internal">
        <lane id=":8069940678_0_0" index="0" allow="pedestrian" speed="1.21" length="5.71" width="4.08" shape="246.20,537.00 245.17,538.32 244.64,539.35 244.29,540.48 243.83,542.11"/>
    </edge>
    <edge id=":8069940678_1" function="internal">
        <lane id=":8069940678_1_0" index="0" allow="pedestrian" speed="1.00" length="5.94" width="2.00" shape="246.20,537.00 245.20,537.91 243.97,538.56 242.51,538.95 240.83,539.06"/>
    </edge>
    <edge id=":8069940678_2" function="internal">
        <lane id=":8069940678_2_0" index="0" allow="pedestrian" speed="1.00" length="3.48" width="4.08" shape="240.84,537.06 241.86,536.94 242.54,536.68 243.22,536.45 244.23,536.46"/>
    </edge>
    <edge id=":8069940678_3" function="internal">
        <lane id=":8069940678_3_0" index="0" allow="pedestrian" speed="1.21" length="7.23" width="4.08" shape="240.84,537.06 242.73,537.39 243.86,538.34 244.22,539.92 243.83,542.11"/>
    </edge>
    <edge id=":8069940684_0" function="internal">
        <lane id=":8069940684_0_0" index="0" allow="pedestrian" speed="1.00" length="2.20" width="4.08" shape="262.16,520.75 262.24,521.28 262.19,521.80 262.03,522.32 261.74,522.85"/>
    </edge>
    <edge id=":8069940684_1" function="internal">
        <lane id=":8069940684_1_0" index="0" allow="pedestrian" speed="1.00" length="3.62" width="2.00" shape="262.16,520.75 262.01,519.72 262.16,519.00 262.41,518.27 262.59,517.21"/>
    </edge>
    <edge id=":8069940684_2" function="internal">
        <lane id=":8069940684_2_0" index="0" allow="pedestrian" speed="1.21" length="6.47" width="4.08" shape="267.46,520.49 265.54,520.83 264.12,521.00 262.94,521.50 261.74,522.85"/>
    </edge>
    <edge id=":8069940684_3" function="internal">
        <lane id=":8069940684_3_0" index="0" allow="pedestrian" speed="1.21" length="7.30" width="2.00" shape="267.46,520.49 265.22,520.79 263.67,520.34 262.79,519.15 262.59,517.21"/>
    </edge>
    <edge id=":8069940684_4" function="internal">
        <lane id=":8069940684_4_0" index="0" allow="pedestrian" speed="1.00" length="6.36" width="4.08" shape="264.59,517.33 264.31,519.14 263.74,520.29 262.89,521.33 261.74,522.85"/>
    </edge>
    <edge id=":8069942288_0" function="internal">
        <lane id=":8069942288_0_0" index="0" disallow="pedestrian tram rail_urban rail rail_electric rail_fast ship cable_car subway" speed="13.89" length="0.30" width="6.50" shape="202.39,487.03 202.37,486.73"/>
    </edge>
    <edge id=":8069942289_0" function="internal">
        <lane id=":8069942289_0_0" index="0" allow="pedestrian" speed="1.00" length="7.28" width="2.00" shape="253.23,480.39 251.64,481.79 250.35,482.51 248.91,482.98 246.84,483.62"/>
    </edge>
    <edge id=":8069942289_1" function="internal">
        <lane id=":8069942289_1_0" index="0" disallow="pedestrian tram rail_urban rail rail_electric rail_fast ship cable_car subway" speed="13.89" length="7.22" width="5.50" shape="248.77,477.54 252.71,483.59"/>
    </edge>
    <edge id=":8069942289_2" function="internal">
        <lane id=":8069942289_2_0" index="0" allow="pedestrian" speed="1.00" length="6.38" width="2.00" shape="246.19,481.73 248.01,481.18 249.28,480.79 250.42,480.18 251.82,478.97"/>
    </edge>
    <edge id=":8069942293_0" function="internal">
        <lane id=":8069942293_0_0" index="0" allow="pedestrian" speed="1.21" length="1.73" width="2.00" shape="216.96,490.40 217.03,488.66"/>
    </edge>
    <edge id=":8069942293_1" function="internal">
        <lane id=":8069942293_1_0" index="0" allow="pedestrian" speed="1.42" length="2.86" width="4.98" shape="216.96,490.40 216.71,490.45 216.54,489.63 216.63,488.61 217.12,488.06"/>
    </edge>
    <edge id=":8069942293_2" function="internal">
        <lane id=":8069942293_2_0" index="0" allow="pedestrian" speed="1.21" length="2.05" width="4.98" shape="215.34,487.60 215.69,487.36 216.07,487.58 216.52,487.93 217.12,488.06"/>
    </edge>
    <edge id=":8069942295_0" function="internal">
        <lane id=":8069942295_0_0" index="0" allow="pedestrian" speed="1.00" length="0.10" width="2.00" shape="213.35,495.22 213.38,495.16"/>
    </edge>
    <edge id=":8069942295_1" function="internal">
        <lane id=":8069942295_1_0" index="0" allow="pedestrian" speed="1.00" length="0.10" width="2.00" shape="211.48,494.52 211.51,494.46"/>
    </edge>
    <edge id=":8069942296_0" function="internal">
        <lane id=":8069942296_0_0" index="0" allow="pedestrian" speed="1.21" length="3.26" width="1.80" shape="205.88,516.39 205.24,515.69 204.96,515.06 204.66,514.45 203.99,513.78"/>
    </edge>
    <edge id=":8069942296_1" function="internal">
        <lane id=":8069942296_1_0" index="0" allow="pedestrian" speed="1.00" length="8.44" width="2.00" shape="205.88,516.39 205.73,514.97 206.16,512.38 206.74,509.72 207.05,508.09"/>
    </edge>
    <edge id=":8069942296_2" function="internal">